pcf
* control data
restart estimation
   1    9830    1    0    1
    1     1 single point 1 0 0
  5.0   2.0   0.3    0.01  10
  5.0   5.0   0.001
  0.1
   30  0.01     4     3  0.01     3
    1     1     1
* parameter groups
paragroup  relative 0.01  0.0  switch  2.0 parabolic

* parameter data
F0area           none  factor    .1470000    .1    .3    paragroup  1.0  0.0  1
* observation groups
obsgroup

* observation data
tevap010620091040               0.005065042    1.0  obsgroup
tevap010620091045               0.008134418    1.0  obsgroup
tevap010620091050               0.008134413    1.0  obsgroup
tevap010620091055               0.007982723    1.0  obsgroup
tevap010620091100               0.007982718    1.0  obsgroup
tevap010620091105               0.007982714    1.0  obsgroup
tevap010620091110               0.007831068    1.0  obsgroup
tevap010620091115               0.007679421    1.0  obsgroup
tevap010620091120               0.007831059    1.0  obsgroup
tevap010620091125               0.007679412    1.0  obsgroup
tevap010620091130               0.007679407    1.0  obsgroup
tevap010620091135               0.007527715    1.0  obsgroup
tevap010620091140               0.007527711    1.0  obsgroup
tevap010620091145               0.007527706    1.0  obsgroup
tevap010620091150               0.007527702    1.0  obsgroup
tevap010620091155               0.007375921    1.0  obsgroup
tevap010620091200               0.007375917    1.0  obsgroup
tevap010620091205               0.007224006    1.0  obsgroup
tevap010620091210               0.007224002    1.0  obsgroup
tevap010620091215               0.007223998    1.0  obsgroup
tevap010620091220               0.007071916    1.0  obsgroup
tevap010620091225               0.007071912    1.0  obsgroup
tevap010620091230               0.007223986    1.0  obsgroup
tevap010620091235               0.006919617    1.0  obsgroup
tevap010620091240               0.0070719    1.0  obsgroup
tevap010620091245               0.007071896    1.0  obsgroup
tevap010620091250               0.006767072    1.0  obsgroup
tevap010620091255               0.006919602    1.0  obsgroup
tevap010620091300               0.006767065    1.0  obsgroup
tevap010620091305               0.006767061    1.0  obsgroup
tevap010620091310               0.006767057    1.0  obsgroup
tevap010620091315               0.006767054    1.0  obsgroup
tevap010620091320               0.006614236    1.0  obsgroup
tevap010620091325               0.006614233    1.0  obsgroup
tevap010620091330               0.006614229    1.0  obsgroup
tevap010620091335               0.006461099    1.0  obsgroup
tevap010620091340               0.006461095    1.0  obsgroup
tevap010620091345               0.006307622    1.0  obsgroup
tevap010620091350               0.006461088    1.0  obsgroup
tevap010620091355               0.006307615    1.0  obsgroup
tevap010620091400               0.006461081    1.0  obsgroup
tevap010620091405               0.006307608    1.0  obsgroup
tevap010620091410               0.006307605    1.0  obsgroup
tevap010620091415               0.006307602    1.0  obsgroup
tevap010620091420               0.006307598    1.0  obsgroup
tevap010620091425               0.006307595    1.0  obsgroup
tevap010620091430               0.006153753    1.0  obsgroup
tevap010620091435               0.006307588    1.0  obsgroup
tevap010620091440               0.006153746    1.0  obsgroup
tevap010620091445               0.006153743    1.0  obsgroup
tevap010620091450               0.005999507    1.0  obsgroup
tevap010620091455               0.005999504    1.0  obsgroup
tevap010620091500               0.005999501    1.0  obsgroup
tevap010620091505               0.005999497    1.0  obsgroup
tevap010620091510               0.005999494    1.0  obsgroup
tevap010620091515               0.005999491    1.0  obsgroup
tevap010620091520               0.005844841    1.0  obsgroup
tevap010620091525               0.005999485    1.0  obsgroup
tevap010620091530               0.005689756    1.0  obsgroup
tevap010620091535               0.005844832    1.0  obsgroup
tevap010620091540               0.00568975    1.0  obsgroup
tevap010620091545               0.005844826    1.0  obsgroup
tevap010620091550               0.005534219    1.0  obsgroup
tevap010620091555               0.005689741    1.0  obsgroup
tevap010620091600               0.005689738    1.0  obsgroup
tevap010620091605               0.005689735    1.0  obsgroup
tevap010620091610               0.005534208    1.0  obsgroup
tevap010620091615               0.005534205    1.0  obsgroup
tevap010620091620               0.005378221    1.0  obsgroup
tevap010620091625               0.005534199    1.0  obsgroup
tevap010620091630               0.005378216    1.0  obsgroup
tevap010620091635               0.005378213    1.0  obsgroup
tevap010620091640               0.005221768    1.0  obsgroup
tevap010620091645               0.005378207    1.0  obsgroup
tevap010620091650               0.005378205    1.0  obsgroup
tevap010620091655               0.00522176    1.0  obsgroup
tevap010620091700               0.005378199    1.0  obsgroup
tevap010620091705               0.005221754    1.0  obsgroup
tevap010620091710               0.005378194    1.0  obsgroup
tevap010620091715               0.005221749    1.0  obsgroup
tevap010620091720               0.005378188    1.0  obsgroup
tevap010620091725               0.005221744    1.0  obsgroup
tevap010620091730               0.004985696    1.0  obsgroup
tevap010620091735               0.004749648    1.0  obsgroup
tevap010620091740               0.005064831    1.0  obsgroup
tevap010620091745               0.005064828    1.0  obsgroup
tevap010620091750               0.005064826    1.0  obsgroup
tevap010620091755               0.005064823    1.0  obsgroup
tevap010620091800               0.005064821    1.0  obsgroup
tevap010620091805               0.004907453    1.0  obsgroup
tevap010620091810               0.005064816    1.0  obsgroup
tevap010620091815               0.004907448    1.0  obsgroup
tevap010620091820               0.005064811    1.0  obsgroup
tevap010620091825               0.004907443    1.0  obsgroup
tevap010620091830               0.005064806    1.0  obsgroup
tevap010620091835               0.005378147    1.0  obsgroup
tevap010620091840               0.005844718    1.0  obsgroup
tevap010620091845               0.00568964    1.0  obsgroup
tevap010620091850               0.005689637    1.0  obsgroup
tevap010620091855               0.005378136    1.0  obsgroup
tevap010620091900               0.005221694    1.0  obsgroup
tevap010620091905               0.005378131    1.0  obsgroup
tevap010620091910               0.005378128    1.0  obsgroup
tevap010620091915               0.005689622    1.0  obsgroup
tevap010620091920               0.006153561    1.0  obsgroup
tevap010620091925               0.006153558    1.0  obsgroup
tevap010620091930               0.006153555    1.0  obsgroup
tevap010620091935               0.006153551    1.0  obsgroup
tevap010620091940               0.005999322    1.0  obsgroup
tevap010620091945               0.005844678    1.0  obsgroup
tevap010620091950               0.005844675    1.0  obsgroup
tevap010620091955               0.005844672    1.0  obsgroup
tevap010620092000               0.005689596    1.0  obsgroup
tevap010620092005               0.005689593    1.0  obsgroup
tevap010620092010               0.00568959    1.0  obsgroup
tevap010620092015               0.005689587    1.0  obsgroup
tevap010620092020               0.005689584    1.0  obsgroup
tevap010620092025               0.005689581    1.0  obsgroup
tevap010620092030               0.005689578    1.0  obsgroup
tevap010620092035               0.005844647    1.0  obsgroup
tevap010620092040               0.005689572    1.0  obsgroup
tevap010620092045               0.005689569    1.0  obsgroup
tevap010620092050               0.005999277    1.0  obsgroup
tevap010620092055               0.006613906    1.0  obsgroup
tevap010620092100               0.006919228    1.0  obsgroup
tevap010620092105               0.0070715    1.0  obsgroup
tevap010620092110               0.007071496    1.0  obsgroup
tevap010620092115               0.007071493    1.0  obsgroup
tevap010620092120               0.007223555    1.0  obsgroup
tevap010620092125               0.007223551    1.0  obsgroup
tevap010620092130               0.007527206    1.0  obsgroup
tevap010620092135               0.007527202    1.0  obsgroup
tevap010620092140               0.007678873    1.0  obsgroup
tevap010620092145               0.007830498    1.0  obsgroup
tevap010620092150               0.007830493    1.0  obsgroup
tevap010620092155               0.007982117    1.0  obsgroup
tevap010620092200               0.008285545    1.0  obsgroup
tevap010620092205               0.008589518    1.0  obsgroup
tevap010620092210               0.00889441    1.0  obsgroup
tevap010620092215               0.00935429    1.0  obsgroup
tevap010620092220               0.009818308    1.0  obsgroup
tevap010620092225               0.01013053    1.0  obsgroup
tevap010620092230               0.010130524    1.0  obsgroup
tevap010620092235               0.010445424    1.0  obsgroup
tevap010620092240               0.010923433    1.0  obsgroup
tevap010620092245               0.01124625    1.0  obsgroup
tevap010620092250               0.01190278    1.0  obsgroup
tevap010620092255               0.012236798    1.0  obsgroup
tevap010620092300               0.012574792    1.0  obsgroup
tevap010620092305               0.01343739    1.0  obsgroup
tevap010620092310               0.013966837    1.0  obsgroup
tevap010620092315               0.01523406    1.0  obsgroup
tevap010620092320               0.016537611    1.0  obsgroup
tevap010620092325               0.018054346    1.0  obsgroup
tevap010620092330               0.019389219    1.0  obsgroup
tevap010620092335               0.020531704    1.0  obsgroup
tevap010620092340               0.022247502    1.0  obsgroup
tevap010620092345               0.024636703    1.0  obsgroup
tevap010620092350               0.027214158    1.0  obsgroup
tevap010620092355               0.029175878    1.0  obsgroup
tevap010720090000               0.031582136    1.0  obsgroup
tevap010720090005               0.03474035    1.0  obsgroup
tevap010720090010               0.038500128    1.0  obsgroup
tevap010720090015               0.041056777    1.0  obsgroup
tevap010720090020               0.043613426    1.0  obsgroup
tevap010720090025               0.046019684    1.0  obsgroup
tevap010720090030               0.048576333    1.0  obsgroup
tevap010720090035               0.050080245    1.0  obsgroup
tevap010720090040               0.051433765    1.0  obsgroup
tevap010720090045               0.052035329    1.0  obsgroup
tevap010720090050               0.052336112    1.0  obsgroup
tevap010720090055               0.05218572    1.0  obsgroup
tevap010720090100               0.051734547    1.0  obsgroup
tevap010720090105               0.051283374    1.0  obsgroup
tevap010720090110               0.050681809    1.0  obsgroup
tevap010720090115               0.049629071    1.0  obsgroup
tevap010720090120               0.048877116    1.0  obsgroup
tevap010720090125               0.04812516    1.0  obsgroup
tevap010720090130               0.047072422    1.0  obsgroup
tevap010720090135               0.046170075    1.0  obsgroup
tevap010720090140               0.045267729    1.0  obsgroup
tevap010720090145               0.044515773    1.0  obsgroup
tevap010720090150               0.043312644    1.0  obsgroup
tevap010720090155               0.042560688    1.0  obsgroup
tevap010720090200               0.041507951    1.0  obsgroup
tevap010720090205               0.040906386    1.0  obsgroup
tevap010720090210               0.040455213    1.0  obsgroup
tevap010720090215               0.039552866    1.0  obsgroup
tevap010720090220               0.038951301    1.0  obsgroup
tevap010720090225               0.038199346    1.0  obsgroup
tevap010720090230               0.037146608    1.0  obsgroup
tevap010720090235               0.036996217    1.0  obsgroup
tevap010720090240               0.03609387    1.0  obsgroup
tevap010720090245               0.035341914    1.0  obsgroup
tevap010720090250               0.034589959    1.0  obsgroup
tevap010720090255               0.034138785    1.0  obsgroup
tevap010720090300               0.033086048    1.0  obsgroup
tevap010720090305               0.032785265    1.0  obsgroup
tevap010720090310               0.032634874    1.0  obsgroup
tevap010720090315               0.03203331    1.0  obsgroup
tevap010720090320               0.031431745    1.0  obsgroup
tevap010720090325               0.030980572    1.0  obsgroup
tevap010720090330               0.030529398    1.0  obsgroup
tevap010720090335               0.030228616    1.0  obsgroup
tevap010720090340               0.029927834    1.0  obsgroup
tevap010720090345               0.029927834    1.0  obsgroup
tevap010720090350               0.029025487    1.0  obsgroup
tevap010720090355               0.028875096    1.0  obsgroup
tevap010720090400               0.028574314    1.0  obsgroup
tevap010720090405               0.028273532    1.0  obsgroup
tevap010720090410               0.02812314    1.0  obsgroup
tevap010720090415               0.027220794    1.0  obsgroup
tevap010720090420               0.027145598    1.0  obsgroup
tevap010720090425               0.027070403    1.0  obsgroup
tevap010720090430               0.026995207    1.0  obsgroup
tevap010720090435               0.026920011    1.0  obsgroup
tevap010720090440               0.026844816    1.0  obsgroup
tevap010720090445               0.02676962    1.0  obsgroup
tevap010720090450               0.026204699    1.0  obsgroup
tevap010720090455               0.025967265    1.0  obsgroup
tevap010720090500               0.025507205    1.0  obsgroup
tevap010720090505               0.025064355    1.0  obsgroup
tevap010720090510               0.024635935    1.0  obsgroup
tevap010720090515               0.024014962    1.0  obsgroup
tevap010720090520               0.02361225    1.0  obsgroup
tevap010720090525               0.023020499    1.0  obsgroup
tevap010720090530               0.022631971    1.0  obsgroup
tevap010720090535               0.022055043    1.0  obsgroup
tevap010720090540               0.022055032    1.0  obsgroup
tevap010720090545               0.021482272    1.0  obsgroup
tevap010720090550               0.021291841    1.0  obsgroup
tevap010720090555               0.02110154    1.0  obsgroup
tevap010720090600               0.020721126    1.0  obsgroup
tevap010720090605               0.020721116    1.0  obsgroup
tevap010720090610               0.020340676    1.0  obsgroup
tevap010720090615               0.020150373    1.0  obsgroup
tevap010720090620               0.019959998    1.0  obsgroup
tevap010720090625               0.019769543    1.0  obsgroup
tevap010720090630               0.019579007    1.0  obsgroup
tevap010720090635               0.019197731    1.0  obsgroup
tevap010720090640               0.019007007    1.0  obsgroup
tevap010720090645               0.018625506    1.0  obsgroup
tevap010720090650               0.018625497    1.0  obsgroup
tevap010720090655               0.018244093    1.0  obsgroup
tevap010720090700               0.017863048    1.0  obsgroup
tevap010720090705               0.017482662    1.0  obsgroup
tevap010720090710               0.017292813    1.0  obsgroup
tevap010720090715               0.016914037    1.0  obsgroup
tevap010720090720               0.016536769    1.0  obsgroup
tevap010720090725               0.016348807    1.0  obsgroup
tevap010720090730               0.016161354    1.0  obsgroup
tevap010720090735               0.016161345    1.0  obsgroup
tevap010720090740               0.015602484    1.0  obsgroup
tevap010720090745               0.015417487    1.0  obsgroup
tevap010720090750               0.015233203    1.0  obsgroup
tevap010720090755               0.015233195    1.0  obsgroup
tevap010720090800               0.01504966    1.0  obsgroup
tevap010720090805               0.014684981    1.0  obsgroup
tevap010720090810               0.014503891    1.0  obsgroup
tevap010720090815               0.014323676    1.0  obsgroup
tevap010720090820               0.014323668    1.0  obsgroup
tevap010720090825               0.014144352    1.0  obsgroup
tevap010720090830               0.013788516    1.0  obsgroup
tevap010720090835               0.013612027    1.0  obsgroup
tevap010720090840               0.013612019    1.0  obsgroup
tevap010720090845               0.013261988    1.0  obsgroup
tevap010720090850               0.013088461    1.0  obsgroup
tevap010720090855               0.012915937    1.0  obsgroup
tevap010720090900               0.012744422    1.0  obsgroup
tevap010720090905               0.012573916    1.0  obsgroup
tevap010720090910               0.012573909    1.0  obsgroup
tevap010720090915               0.01240441    1.0  obsgroup
tevap010720090920               0.012235913    1.0  obsgroup
tevap010720090925               0.012068412    1.0  obsgroup
tevap010720090930               0.011901895    1.0  obsgroup
tevap010720090935               0.011901888    1.0  obsgroup
tevap010720090940               0.011901881    1.0  obsgroup
tevap010720090945               0.011736336    1.0  obsgroup
tevap010720090950               0.011571747    1.0  obsgroup
tevap010720090955               0.011408096    1.0  obsgroup
tevap010720091000               0.011245362    1.0  obsgroup
tevap010720091005               0.011083522    1.0  obsgroup
tevap010720091010               0.011083515    1.0  obsgroup
tevap010720091015               0.011083509    1.0  obsgroup
tevap010720091020               0.011083502    1.0  obsgroup
tevap010720091025               0.01092253    1.0  obsgroup
tevap010720091030               0.010762399    1.0  obsgroup
tevap010720091035               0.010603077    1.0  obsgroup
tevap010720091040               0.010444534    1.0  obsgroup
tevap010720091045               0.010444527    1.0  obsgroup
tevap010720091050               0.010444521    1.0  obsgroup
tevap010720091055               0.010444515    1.0  obsgroup
tevap010720091100               0.010286716    1.0  obsgroup
tevap010720091105               0.01028671    1.0  obsgroup
tevap010720091110               0.010129619    1.0  obsgroup
tevap010720091115               0.009973198    1.0  obsgroup
tevap010720091120               0.009817408    1.0  obsgroup
tevap010720091125               0.009817402    1.0  obsgroup
tevap010720091130               0.009817397    1.0  obsgroup
tevap010720091135               0.009817391    1.0  obsgroup
tevap010720091140               0.009662192    1.0  obsgroup
tevap010720091145               0.009507541    1.0  obsgroup
tevap010720091150               0.009507535    1.0  obsgroup
tevap010720091155               0.00935339    1.0  obsgroup
tevap010720091200               0.009353384    1.0  obsgroup
tevap010720091205               0.009353379    1.0  obsgroup
tevap010720091210               0.009199694    1.0  obsgroup
tevap010720091215               0.009199689    1.0  obsgroup
tevap010720091220               0.009199683    1.0  obsgroup
tevap010720091225               0.009046415    1.0  obsgroup
tevap010720091230               0.009046409    1.0  obsgroup
tevap010720091235               0.009046404    1.0  obsgroup
tevap010720091240               0.008740936    1.0  obsgroup
tevap010720091245               0.008893501    1.0  obsgroup
tevap010720091250               0.008740926    1.0  obsgroup
tevap010720091255               0.008740921    1.0  obsgroup
tevap010720091300               0.008588624    1.0  obsgroup
tevap010720091305               0.008436556    1.0  obsgroup
tevap010720091310               0.008588614    1.0  obsgroup
tevap010720091315               0.008436547    1.0  obsgroup
tevap010720091320               0.008436542    1.0  obsgroup
tevap010720091325               0.008436537    1.0  obsgroup
tevap010720091330               0.008436532    1.0  obsgroup
tevap010720091335               0.008436527    1.0  obsgroup
tevap010720091340               0.008284644    1.0  obsgroup
tevap010720091345               0.008284639    1.0  obsgroup
tevap010720091350               0.008132892    1.0  obsgroup
tevap010720091355               0.008284629    1.0  obsgroup
tevap010720091400               0.008132883    1.0  obsgroup
tevap010720091405               0.008132878    1.0  obsgroup
tevap010720091410               0.007981221    1.0  obsgroup
tevap010720091415               0.007981217    1.0  obsgroup
tevap010720091420               0.007981212    1.0  obsgroup
tevap010720091425               0.0078296    1.0  obsgroup
tevap010720091430               0.007829596    1.0  obsgroup
tevap010720091435               0.007829591    1.0  obsgroup
tevap010720091440               0.007829587    1.0  obsgroup
tevap010720091445               0.007829582    1.0  obsgroup
tevap010720091450               0.007829578    1.0  obsgroup
tevap010720091455               0.007829573    1.0  obsgroup
tevap010720091500               0.007677961    1.0  obsgroup
tevap010720091505               0.007829564    1.0  obsgroup
tevap010720091510               0.007677952    1.0  obsgroup
tevap010720091515               0.007677948    1.0  obsgroup
tevap010720091520               0.007677943    1.0  obsgroup
tevap010720091525               0.007526286    1.0  obsgroup
tevap010720091530               0.007677934    1.0  obsgroup
tevap010720091535               0.007374536    1.0  obsgroup
tevap010720091540               0.007677926    1.0  obsgroup
tevap010720091545               0.007526269    1.0  obsgroup
tevap010720091550               0.007829524    1.0  obsgroup
tevap010720091555               0.007829519    1.0  obsgroup
tevap010720091600               0.00813277    1.0  obsgroup
tevap010720091605               0.008132765    1.0  obsgroup
tevap010720091610               0.008436375    1.0  obsgroup
tevap010720091615               0.00843637    1.0  obsgroup
tevap010720091620               0.008893277    1.0  obsgroup
tevap010720091625               0.009199419    1.0  obsgroup
tevap010720091630               0.00981705    1.0  obsgroup
tevap010720091635               0.010129232    1.0  obsgroup
tevap010720091640               0.01092205    1.0  obsgroup
tevap010720091645               0.01140755    1.0  obsgroup
tevap010720091650               0.012235276    1.0  obsgroup
tevap010720091655               0.013611257    1.0  obsgroup
tevap010720091700               0.015232287    1.0  obsgroup
tevap010720091705               0.016912986    1.0  obsgroup
tevap010720091710               0.018624326    1.0  obsgroup
tevap010720091715               0.020339347    1.0  obsgroup
tevap010720091720               0.022630432    1.0  obsgroup
tevap010720091725               0.026445623    1.0  obsgroup
tevap010720091730               0.028574314    1.0  obsgroup
tevap010720091735               0.033687612    1.0  obsgroup
tevap010720091740               0.039853648    1.0  obsgroup
tevap010720091745               0.046170075    1.0  obsgroup
tevap010720091750               0.053088067    1.0  obsgroup
tevap010720091755               0.058201365    1.0  obsgroup
tevap010720091800               0.065570531    1.0  obsgroup
tevap010720091805               0.072488522    1.0  obsgroup
tevap010720091810               0.077902603    1.0  obsgroup
tevap010720091815               0.081361599    1.0  obsgroup
tevap010720091820               0.084820595    1.0  obsgroup
tevap010720091825               0.088129199    1.0  obsgroup
tevap010720091830               0.09083624    1.0  obsgroup
tevap010720091835               0.093092106    1.0  obsgroup
tevap010720091840               0.095347973    1.0  obsgroup
tevap010720091845               0.10031088    1.0  obsgroup
tevap010720091850               0.106025743    1.0  obsgroup
tevap010720091855               0.11098865    1.0  obsgroup
tevap010720091900               0.115199602    1.0  obsgroup
tevap010720091905               0.115500384    1.0  obsgroup
tevap010720091910               0.113094126    1.0  obsgroup
tevap010720091915               0.114447646    1.0  obsgroup
tevap010720091920               0.117455469    1.0  obsgroup
tevap010720091925               0.118057033    1.0  obsgroup
tevap010720091930               0.118357815    1.0  obsgroup
tevap010720091935               0.118808989    1.0  obsgroup
tevap010720091940               0.11895938    1.0  obsgroup
tevap010720091945               0.120764073    1.0  obsgroup
tevap010720091950               0.120463291    1.0  obsgroup
tevap010720091955               0.119861727    1.0  obsgroup
tevap010720092000               0.120162509    1.0  obsgroup
tevap010720092005               0.120914465    1.0  obsgroup
tevap010720092010               0.120914465    1.0  obsgroup
tevap010720092015               0.121064856    1.0  obsgroup
tevap010720092020               0.120613682    1.0  obsgroup
tevap010720092025               0.121064856    1.0  obsgroup
tevap010720092030               0.121215247    1.0  obsgroup
tevap010720092035               0.121064856    1.0  obsgroup
tevap010720092040               0.120613682    1.0  obsgroup
tevap010720092045               0.120012118    1.0  obsgroup
tevap010720092050               0.119711336    1.0  obsgroup
tevap010720092055               0.119109771    1.0  obsgroup
tevap010720092100               0.117906642    1.0  obsgroup
tevap010720092105               0.118207424    1.0  obsgroup
tevap010720092110               0.117756251    1.0  obsgroup
tevap010720092115               0.117455469    1.0  obsgroup
tevap010720092120               0.11760586    1.0  obsgroup
tevap010720092125               0.117004295    1.0  obsgroup
tevap010720092130               0.11760586    1.0  obsgroup
tevap010720092135               0.117756251    1.0  obsgroup
tevap010720092140               0.119260162    1.0  obsgroup
tevap010720092145               0.123471114    1.0  obsgroup
tevap010720092150               0.124674243    1.0  obsgroup
tevap010720092155               0.124523852    1.0  obsgroup
tevap010720092200               0.126478936    1.0  obsgroup
tevap010720092205               0.127982847    1.0  obsgroup
tevap010720092210               0.12828363    1.0  obsgroup
tevap010720092215               0.128885194    1.0  obsgroup
tevap010720092220               0.130088323    1.0  obsgroup
tevap010720092225               0.131141061    1.0  obsgroup
tevap010720092230               0.132644972    1.0  obsgroup
tevap010720092235               0.133547319    1.0  obsgroup
tevap010720092240               0.134148884    1.0  obsgroup
tevap010720092245               0.132795363    1.0  obsgroup
tevap010720092250               0.133096146    1.0  obsgroup
tevap010720092255               0.134299275    1.0  obsgroup
tevap010720092300               0.134600057    1.0  obsgroup
tevap010720092305               0.133396928    1.0  obsgroup
tevap010720092310               0.134148884    1.0  obsgroup
tevap010720092315               0.134299275    1.0  obsgroup
tevap010720092320               0.135352013    1.0  obsgroup
tevap010720092325               0.137156706    1.0  obsgroup
tevap010720092330               0.139562964    1.0  obsgroup
tevap010720092335               0.139412573    1.0  obsgroup
tevap010720092340               0.139713355    1.0  obsgroup
tevap010720092345               0.138359835    1.0  obsgroup
tevap010720092350               0.137457488    1.0  obsgroup
tevap010720092355               0.13640475    1.0  obsgroup
tevap010820090000               0.137457488    1.0  obsgroup
tevap010820090005               0.137307097    1.0  obsgroup
tevap010820090010               0.138359835    1.0  obsgroup
tevap010820090015               0.139262182    1.0  obsgroup
tevap010820090020               0.139562964    1.0  obsgroup
tevap010820090025               0.138510226    1.0  obsgroup
tevap010820090030               0.137156706    1.0  obsgroup
tevap010820090035               0.135502404    1.0  obsgroup
tevap010820090040               0.134148884    1.0  obsgroup
tevap010820090045               0.132644972    1.0  obsgroup
tevap010820090050               0.129185976    1.0  obsgroup
tevap010820090055               0.126478936    1.0  obsgroup
tevap010820090100               0.12301994    1.0  obsgroup
tevap010820090105               0.1203129    1.0  obsgroup
tevap010820090110               0.116553122    1.0  obsgroup
tevap010820090115               0.113094126    1.0  obsgroup
tevap010820090120               0.108582392    1.0  obsgroup
tevap010820090125               0.104822614    1.0  obsgroup
tevap010820090130               0.100762054    1.0  obsgroup
tevap010820090135               0.096551102    1.0  obsgroup
tevap010820090140               0.092791324    1.0  obsgroup
tevap010820090145               0.088881155    1.0  obsgroup
tevap010820090150               0.084519812    1.0  obsgroup
tevap010820090155               0.080459252    1.0  obsgroup
tevap010820090200               0.0762483    1.0  obsgroup
tevap010820090205               0.072638913    1.0  obsgroup
tevap010820090210               0.069029526    1.0  obsgroup
tevap010820090215               0.065119357    1.0  obsgroup
tevap010820090220               0.06150997    1.0  obsgroup
tevap010820090225               0.05880293    1.0  obsgroup
tevap010820090230               0.055193543    1.0  obsgroup
tevap010820090235               0.052336112    1.0  obsgroup
tevap010820090240               0.049328289    1.0  obsgroup
tevap010820090245               0.046320467    1.0  obsgroup
tevap010820090250               0.044214991    1.0  obsgroup
tevap010820090255               0.041808733    1.0  obsgroup
tevap010820090300               0.039402475    1.0  obsgroup